Program Version,EnergyPlus, Version 25.1.0-1c11a3d85f, YMD=2025.08.27 01:24,
   ** Warning ** Weather file location will be used rather than entered (IDF) Location object.
   **   ~~~   ** ..Location object=DENVER CENTENNIAL CO USA WMO=724666
   **   ~~~   ** ..Weather File Location=San Francisco Intl Ap CA USA TMY3 WMO#=724940
   **   ~~~   ** ..due to location differences, Latitude difference=[2.12] degrees, Longitude difference=[17.22] degrees.
   **   ~~~   ** ..Time Zone difference=[1.0] hour(s), Elevation difference=[99.89] percent, [1791.00] meters.
   ** Warning ** SetUpDesignDay: Entered DesignDay Barometric Pressure=81560 differs by more than 10% from Standard Barometric Pressure=101301.
   **   ~~~   ** ...occurs in DesignDay=DENVER CENTENNIAL ANN HTG 99.6% CONDNS DB, Standard Pressure (based on elevation) will be used.
   ** Warning ** SetUpDesignDay: Entered DesignDay Barometric Pressure=81560 differs by more than 10% from Standard Barometric Pressure=101301.
   **   ~~~   ** ...occurs in DesignDay=DENVER CENTENNIAL ANN CLG 1% CONDNS DB=>MWB, Standard Pressure (based on elevation) will be used.
   ************* Testing Individual Branch Integrity
   ************* All Branches passed integrity testing
   ************* Testing Individual Supply Air Path Integrity
   ************* All Supply Air Paths passed integrity testing
   ************* Testing Individual Return Air Path Integrity
   ************* All Return Air Paths passed integrity testing
   ************* No node connection errors were found.
   ************* Beginning Simulation
   ** Warning ** CalcDoe2DXCoil: Coil:Cooling:DX:SingleSpeed "MAIN COOLING COIL 1" - Air-cooled condenser inlet dry-bulb temperature below 0 C. Outdoor dry-bulb temperature = -18.80
   **   ~~~   **  ... Occurrence info = DENVER CENTENNIAL ANN HTG 99.6% CONDNS DB, 12/21 00:00 - 00:10
   **   ~~~   ** ... Operation at low ambient temperatures may require special performance curves.
   ************* Simulation Error Summary *************
   ************* There are 1 unused schedules in input.
   ************* Use Output:Diagnostics,DisplayUnusedSchedules; to see them.
   *************
   ************* ===== Recurring Error Summary =====
   ************* The following recurring error messages occurred.
   *************
   *************  ** Warning ** CalcDoe2DXCoil: Coil:Cooling:DX:SingleSpeed="MAIN COOLING COIL 1" - Low condenser dry-bulb temperature error continues...
   *************  **   ~~~   **   This error occurred 143 total times;
   *************  **   ~~~   **   during Warmup 0 times;
   *************  **   ~~~   **   during Sizing 0 times.
   *************  **   ~~~   **   Max=-18.800000 [C]  Min=-18.800000 [C]
   *************
   ************* EnergyPlus Warmup Error Summary. During Warmup: 0 Warning; 0 Severe Errors.
   ************* EnergyPlus Sizing Error Summary. During Sizing: 0 Warning; 0 Severe Errors.
   ************* EnergyPlus Completed Successfully-- 146 Warning; 0 Severe Errors; Elapsed Time=00hr 00min  4.25sec
